casefile/temp/WECC240_v03_Mod_NewMVA_month_5_day_10_hour_5_step2_addgen_solved.raw
@!IC, SBASE,REV,XFRRAT,NXFRAT,BASFRQ
0,   100.00, 34,     0,     1, 60.00     / PSS(R)E-34.8    MON, MAR 21 2022  15:57
WECC 240 SYSTEM, V0.2,  MODIFIED BY NREL, INTERNAL USE ONLY
CONTACT: HAOYU.YUAN@NREL.GOV
GENERAL, THRSHZ=0.0001, PQBRAK=0.7, BLOWUP=5.0
GAUSS, ITMX=100, ACCP=1.6, ACCQ=1.6, ACCM=1.0, TOL=0.0001
NEWTON, ITMXN=300, ACCN=1.0, TOLN=0.1, VCTOLQ=0.1, VCTOLV=0.00001, DVLIM=0.99, NDVFCT=0.99
ADJUST, ADJTHR=0.005, ACCTAP=1.0, TAPLIM=0.05, SWVBND=100.0, MXTPSS=99, MXSWIM=10
TYSL, ITMXTY=20, ACCTY=1.0, TOLTY=0.00001
SOLVER, FNSL, ACTAPS=0, AREAIN=0, PHSHFT=0, DCTAPS=1, SWSHNT=1, FLATST=1, VARLIM=0
RATING, 1, "RATE1 ", "RATING SET 1                    "
RATING, 2, "RATE2 ", "RATING SET 2                    "
RATING, 3, "RATE3 ", "RATING SET 3                    "
RATING, 4, "RATE4 ", "RATING SET 4                    "
RATING, 5, "RATE5 ", "RATING SET 5                    "
RATING, 6, "RATE6 ", "RATING SET 6                    "
RATING, 7, "RATE7 ", "RATING SET 7                    "
RATING, 8, "RATE8 ", "RATING SET 8                    "
RATING, 9, "RATE9 ", "RATING SET 9                    "
RATING,10, "RATE10", "RATING SET 10                   "
RATING,11, "RATE11", "RATING SET 11                   "
RATING,12, "RATE12", "RATING SET 12                   "
0 / END OF SYSTEM-WIDE DATA, BEGIN BUS DATA
@!   I,'NAME        ', BASKV, IDE,AREA,ZONE,OWNER, VM,        VA,    NVHI,   NVLO,   EVHI,   EVLO
  1001,'FOURCORN    ', 500.0000,1,   1,   3,   1,1.01567,  10.8170,1.10000,0.90000,1.10000,0.90000
  1002,'FOURCORN    ', 345.0000,1,   1,   3,   1,1.01400,  14.0515,1.10000,0.90000,1.10000,0.90000
  1003,'FOURCORN    ', 230.0000,2,   1,  10,   1,1.00000,  10.4683,1.10000,0.90000,1.10000,0.90000
  1004,'SAN JUAN    ', 345.0000,2,   1,  10,   1,1.00000,  23.5529,1.10000,0.90000,1.10000,0.90000
  1032,'FCNGN4CC    ',  20.0000,2,   1,  10,   1,1.02011,  14.2933,1.10000,0.90000,1.10000,0.90000
  1034,'SJUAN G4    ',  20.0000,2,   1,  10,   1,0.99953,  24.3191,1.10000,0.90000,1.10000,0.90000
  1101,'CORONADO    ', 500.0000,2,   1,   3,   1,1.00000,  -7.4431,1.10000,0.90000,1.10000,0.90000
  1102,'CHOLLA      ', 345.0000,2,   1,   3,   1,1.00000,   1.4647,1.10000,0.90000,1.10000,0.90000
  1131,'CORONADO    ',  20.0000,2,   1,   3,   1,1.00010,  -7.0799,1.10000,0.90000,1.10000,0.90000
  1201,'MOENKOPI    ', 500.0000,2,   1,   3,   1,1.00000,  -4.3654,1.10000,0.90000,1.10000,0.90000
  1202,'NAVAJO      ', 500.0000,2,   1,   3,   1,1.00000,  -0.6464,1.10000,0.90000,1.10000,0.90000
  1232,'NAVAJO 2    ',  20.0000,3,   1,   3,   1,1.08000,   0.0000,1.10000,0.90000,1.10000,0.90000
  1301,'MEAD        ', 500.0000,2,   1,   3,   1,1.00000, -14.4261,1.10000,0.90000,1.10000,0.90000
  1302,'H ALLEN     ', 500.0000,2,   1,   9,   1,1.00000,  -4.2459,1.10000,0.90000,1.10000,0.90000
  1303,'H ALLEN     ', 345.0000,1,   1,   9,   1,1.00500,  -1.9926,1.10000,0.90000,1.10000,0.90000
  1331,'HOOVER      ',  20.0000,2,   1,   3,   1,0.99953, -14.1897,1.10000,0.90000,1.10000,0.90000
  1333,'H ALLEN     ',  20.0000,2,   1,   9,   1,1.00474,  -1.2475,1.10000,0.90000,1.10000,0.90000
  1401,'PALOVRDE    ', 500.0000,2,   1,   3,   1,1.00000, -16.7873,1.10000,0.90000,1.10000,0.90000
  1402,'WESTWING    ', 500.0000,2,   1,   3,   1,1.00000, -17.2164,1.10000,0.90000,1.10000,0.90000
  1403,'PARKER      ', 230.0000,2,   1,   3,   1,1.00000, -18.0336,1.10000,0.90000,1.10000,0.90000
  1431,'PALOVRD2    ',  20.0000,2,   1,   3,   1,0.99847, -15.9076,1.10000,0.90000,1.10000,0.90000
  2000,'MEXICO      ', 230.0000,2,   4,   7,   1,1.00000, -47.9022,1.10000,0.90000,1.10000,0.90000
  2030,'MEXICO      ',  20.0000,2,   4,   7,   1,0.99980, -47.7532,1.10000,0.90000,1.10000,0.90000
  2100,'IMPERIAL    ', 230.0000,2,   2,   2,   1,1.00000, -24.4433,1.10000,0.90000,1.10000,0.90000
  2130,'IMPERIAL    ',  20.0000,2,   2,   2,   1,0.99989, -24.2503,1.10000,0.90000,1.10000,0.90000
  2201,'MIGUEL      ', 500.0000,2,   2,   2,   1,1.00000, -46.7567,1.10000,0.90000,1.10000,0.90000
  2202,'MIGUEL      ', 230.0000,1,   2,   2,   1,1.00301, -47.9356,1.10000,0.90000,1.10000,0.90000
  2203,'MISSION     ', 230.0000,2,   2,   2,   1,1.00000, -49.6913,1.10000,0.90000,1.10000,0.90000
  2233,'MISSION     ',  20.0000,2,   2,   2,   1,1.00000, -49.6913,1.10000,0.90000,1.10000,0.90000
  2301,'IMPRLVLY    ', 500.0000,2,   2,   2,   1,1.00000, -34.5760,1.10000,0.90000,1.10000,0.90000
  2302,'IMPRLVLY    ', 230.0000,1,   2,   2,   1,0.99826, -34.8197,1.10000,0.90000,1.10000,0.90000
  2332,'IMPRLVLY    ',  20.0000,2,   2,   2,   1,0.99826, -34.8197,1.10000,0.90000,1.10000,0.90000
  2400,'DEVERS      ', 500.0000,2,   2,   2,   1,1.00000, -26.9033,1.10000,0.90000,1.10000,0.90000
  2401,'LUGO        ', 500.0000,2,   2,   2,   1,1.00000, -19.4974,1.10000,0.90000,1.10000,0.90000
  2402,'MIRALOMA    ', 500.0000,2,   2,   2,   1,1.00000, -25.8817,1.10000,0.90000,1.10000,0.90000
  2403,'VALLEY      ', 500.0000,2,   2,   2,   1,1.00000, -29.3118,1.10000,0.90000,1.10000,0.90000
  2404,'VINCENT     ', 500.0000,2,   2,   2,   1,1.00000,  -7.5490,1.10000,0.90000,1.10000,0.90000
  2405,'SYLMAR S    ', 230.0000,2,   2,   2,   1,1.00000, -23.3768,1.10000,0.90000,1.10000,0.90000
  2406,'EAGLROCK    ', 230.0000,2,   2,   2,   1,1.00000, -24.8663,1.10000,0.90000,1.10000,0.90000
  2407,'LITEHIPE    ', 230.0000,2,   2,   2,   1,1.00000, -28.2927,1.10000,0.90000,1.10000,0.90000
  2408,'MESA CAL    ', 230.0000,2,   2,   2,   1,1.00000, -21.3958,1.10000,0.90000,1.10000,0.90000
  2409,'MIRALOMA    ', 230.0000,1,   2,   2,   1,0.99625, -29.4523,1.10000,0.90000,1.10000,0.90000
  2410,'PARDEE      ', 230.0000,2,   2,   2,   1,1.00000, -22.7678,1.10000,0.90000,1.10000,0.90000
  2411,'VINCENT     ', 230.0000,1,   2,   2,   1,0.99825, -12.0114,1.10000,0.90000,1.10000,0.90000
  2431,'LUGO        ',  20.0000,2,   2,   2,   1,1.00000, -19.4974,1.10000,0.90000,1.10000,0.90000
  2434,'VINCENT     ',  20.0000,2,   2,   2,   1,0.99825, -12.0114,1.10000,0.90000,1.10000,0.90000
  2438,'MESA CAL    ',  20.0000,2,   2,   2,   1,1.00017, -20.6003,1.10000,0.90000,1.10000,0.90000
  2439,'MIRALOMA    ',  20.0000,2,   2,   2,   1,0.99625, -29.4523,1.10000,0.90000,1.10000,0.90000
  2501,'SERRANO     ', 500.0000,2,   2,   2,   1,1.00000, -28.9204,1.10000,0.90000,1.10000,0.90000
  2502,'SERRANO     ', 230.0000,1,   2,   2,   1,0.99711, -31.1755,1.10000,0.90000,1.10000,0.90000
  2503,'S.ONOFRE    ', 230.0000,2,   2,   2,   1,1.00000, -43.4633,1.10000,0.90000,1.10000,0.90000
  2533,'S.ONOFRE    ',  20.0000,2,   2,   2,   1,1.00000, -43.4633,1.10000,0.90000,1.10000,0.90000
  2600,'ADELANTO    ', 500.0000,2,   2,   2,   1,1.00000, -18.5560,1.10000,0.90000,1.10000,0.90000
  2601,'RINALDI     ', 500.0000,2,   2,   2,   1,1.00000, -20.7704,1.10000,0.90000,1.10000,0.90000
  2602,'STA E       ', 500.0000,2,   2,   2,   1,1.00000, -24.2601,1.10000,0.90000,1.10000,0.90000
  2603,'VICTORVL    ', 500.0000,2,   2,   2,   1,1.00000, -18.6224,1.10000,0.90000,1.10000,0.90000
  2604,'INTERMT     ', 345.0000,2,   2,   2,   1,1.00000,  40.4670,1.10000,0.90000,1.10000,0.90000
  2605,'STA B1      ', 287.0000,1,   2,   2,   1,0.99826, -27.4291,1.10000,0.90000,1.10000,0.90000
  2606,'STA B2      ', 287.0000,1,   2,   2,   1,0.99826, -27.4291,1.10000,0.90000,1.10000,0.90000
  2607,'VICTORVL    ', 287.0000,1,   2,   2,   1,1.00656, -21.8924,1.10000,0.90000,1.10000,0.90000
  2608,'CASTAIC     ', 230.0000,2,   2,   2,   1,1.00000, -23.3280,1.10000,0.90000,1.10000,0.90000
  2609,'GLENDAL     ', 230.0000,2,   2,   2,   1,1.00000, -27.3081,1.10000,0.90000,1.10000,0.90000
  2610,'HAYNES      ', 230.0000,2,   2,   2,   1,1.00000, -28.8170,1.10000,0.90000,1.10000,0.90000
  2611,'OLIVE       ', 230.0000,2,   2,   2,   1,1.00000, -24.0720,1.10000,0.90000,1.10000,0.90000
  2612,'RINALDI     ', 230.0000,1,   2,   2,   1,1.00114, -23.9895,1.10000,0.90000,1.10000,0.90000
  2613,'RIVER       ', 230.0000,2,   2,   2,   1,1.00000, -28.6189,1.10000,0.90000,1.10000,0.90000
  2614,'STA BLD     ', 230.0000,1,   2,   2,   1,0.99917, -28.7275,1.10000,0.90000,1.10000,0.90000
  2615,'STA E       ', 230.0000,1,   2,   2,   1,1.00080, -26.3237,1.10000,0.90000,1.10000,0.90000
  2616,'STA F       ', 230.0000,1,   2,   2,   1,1.00005, -28.6262,1.10000,0.90000,1.10000,0.90000
  2617,'STA G       ', 230.0000,1,   2,   2,   1,1.00043, -27.7309,1.10000,0.90000,1.10000,0.90000
  2618,'STA J       ', 230.0000,1,   2,   2,   1,0.99883, -24.8216,1.10000,0.90000,1.10000,0.90000
  2619,'SYLMARLA    ', 230.0000,1,   2,   2,   1,1.00097, -23.1494,1.10000,0.90000,1.10000,0.90000
  2620,'VALLEY      ', 230.0000,1,   2,   2,   1,1.00078, -25.1487,1.10000,0.90000,1.10000,0.90000
  2621,'STA B       ', 138.0000,1,   2,   2,   1,0.99675, -28.4661,1.10000,0.90000,1.10000,0.90000
  2630,'HAYNES3G    ',  20.0000,2,   2,   2,   1,1.00000, -28.8170,1.10000,0.90000,1.10000,0.90000
  2631,'OLIVE       ',  20.0000,2,   2,   2,   1,1.00000, -24.0720,1.10000,0.90000,1.10000,0.90000
  2634,'INTERM1G    ',  20.0000,2,   2,   2,   1,1.00008,  40.5597,1.10000,0.90000,1.10000,0.90000
  2637,'OWENS G     ',  20.0000,2,   2,   2,   1,1.00131, -23.9780,1.10000,0.90000,1.10000,0.90000
  2638,'CASTAI4G    ',  20.0000,2,   2,   2,   1,0.99991, -23.2740,1.10000,0.90000,1.10000,0.90000
  2901,'ELDORADO    ', 500.0000,2,   2,   2,   1,1.00000, -13.0353,1.10000,0.90000,1.10000,0.90000
  2902,'MOHAVE      ', 500.0000,2,   2,   2,   1,1.00000, -15.0607,1.10000,0.90000,1.10000,0.90000
  3101,'EMBRCDRD    ', 230.0000,2,   2,   2,   1,1.00000,  29.6329,1.10000,0.90000,1.10000,0.90000
  3102,'MARTIN      ', 230.0000,2,   2,   2,   1,1.00000,  30.2820,1.10000,0.90000,1.10000,0.90000
  3103,'SANMATEO    ', 230.0000,2,   2,   2,   1,1.00000,  31.6621,1.10000,0.90000,1.10000,0.90000
  3104,'MARTIN      ', 115.0000,1,   2,   2,   1,1.00071,  30.6383,1.10000,0.90000,1.10000,0.90000
  3105,'POTRERO     ', 115.0000,2,   2,   2,   1,1.00000,  33.6766,1.10000,0.90000,1.10000,0.90000
  3133,'SANMATEO    ',  20.0000,2,   2,   2,   1,1.00000,  31.6621,1.10000,0.90000,1.10000,0.90000
  3135,'POTRERO     ',  20.0000,2,   2,   2,   1,0.99988,  33.7636,1.10000,0.90000,1.10000,0.90000
  3201,'C.COSTA     ', 230.0000,2,   2,   2,   1,1.00000,  33.8879,1.10000,0.90000,1.10000,0.90000
  3202,'MORAGA      ', 230.0000,2,   2,   2,   1,1.00000,  33.7753,1.10000,0.90000,1.10000,0.90000
  3203,'NEWARK      ', 230.0000,2,   2,   2,   1,1.00000,  32.4290,1.10000,0.90000,1.10000,0.90000
  3204,'PITSBURG    ', 230.0000,2,   2,   2,   1,1.00000,  34.6200,1.10000,0.90000,1.10000,0.90000
  3205,'SOBRANTE    ', 230.0000,2,   2,   2,   1,1.00000,  35.7151,1.10000,0.90000,1.10000,0.90000
  3234,'PITSBURG    ',  20.0000,2,   2,   2,   1,0.99938,  34.9725,1.10000,0.90000,1.10000,0.90000
  3301,'METCALF     ', 500.0000,2,   2,   2,   1,1.00000,  29.7416,1.10000,0.90000,1.10000,0.90000
  3302,'JEFFERSN    ', 230.0000,2,   2,   2,   1,1.00000,  27.8988,1.10000,0.90000,1.10000,0.90000
  3303,'METCALF     ', 230.0000,1,   2,   2,   1,1.00229,  28.1741,1.10000,0.90000,1.10000,0.90000
  3304,'MONTAVIS    ', 230.0000,1,   2,   2,   1,1.00294,  27.5401,1.10000,0.90000,1.10000,0.90000
  3305,'RAVENSWD    ', 230.0000,2,   2,   2,   1,1.00000,  31.7989,1.10000,0.90000,1.10000,0.90000
  3333,'METCALF     ',  20.0000,2,   2,   2,   1,1.00229,  28.1741,1.10000,0.90000,1.10000,0.90000
  3401,'GREGG       ', 230.0000,2,   2,   2,   1,1.00000,  14.1899,1.10000,0.90000,1.10000,0.90000
  3402,'HELMS PP    ', 230.0000,2,   2,   2,   1,1.00000,  14.1899,1.10000,0.90000,1.10000,0.90000
  3403,'MC CALL     ', 230.0000,2,   2,   2,   1,1.00000,  10.7385,1.10000,0.90000,1.10000,0.90000
  3404,'PANOCHE     ', 230.0000,2,   2,   2,   1,1.00000,  13.9972,1.10000,0.90000,1.10000,0.90000
  3405,'WILSON      ', 230.0000,2,   2,   2,   1,1.00000,  17.9359,1.10000,0.90000,1.10000,0.90000
  3432,'HELMS PP    ',  20.0000,2,   2,   2,   1,1.00000,  14.1899,1.10000,0.90000,1.10000,0.90000
  3433,'MC CALL     ',  20.0000,2,   2,   2,   1,1.00000,  10.7385,1.10000,0.90000,1.10000,0.90000
  3501,'FULTON      ', 230.0000,2,   2,   2,   1,1.00000,  56.7585,1.10000,0.90000,1.10000,0.90000
  3531,'FULTON      ',  20.0000,2,   2,   2,   1,0.99987,  57.3145,1.10000,0.90000,1.10000,0.90000
  3601,'HUMBOLDT    ', 115.0000,2,   2,   2,   1,1.00000,  51.8577,1.10000,0.90000,1.10000,0.90000
  3631,'HUMBOLDT    ',  20.0000,2,   2,   2,   1,0.99994,  51.8779,1.10000,0.90000,1.10000,0.90000
  3701,'SUMMIT      ', 115.0000,2,   1,   9,   1,1.00000,  35.1381,1.10000,0.90000,1.10000,0.90000
  3731,'SUMMIT      ',  20.0000,2,   1,   9,   1,0.99958,  35.1541,1.10000,0.90000,1.10000,0.90000
  3801,'DIABLO      ', 500.0000,2,   2,   2,   1,1.00000,  12.2292,1.10000,0.90000,1.10000,0.90000
  3802,'GATES       ', 500.0000,2,   2,   2,   1,1.00000,   7.8204,1.10000,0.90000,1.10000,0.90000
  3803,'MIDWAY      ', 500.0000,2,   2,   2,   1,1.00000,   1.5501,1.10000,0.90000,1.10000,0.90000
  3804,'GATES       ', 230.0000,1,   2,   2,   1,0.99954,  11.9778,1.10000,0.90000,1.10000,0.90000
  3805,'MIDWAY      ', 230.0000,1,   2,   2,   1,0.99688,   3.2359,1.10000,0.90000,1.10000,0.90000
  3806,'MORROBAY    ', 230.0000,2,   2,   2,   1,1.00000,  16.9849,1.10000,0.90000,1.10000,0.90000
  3831,'DIABLO1     ',  20.0000,2,   2,   2,   1,0.99961,  12.8950,1.10000,0.90000,1.10000,0.90000
  3835,'MIDWAY      ',  20.0000,2,   2,   2,   1,0.99688,   3.2359,1.10000,0.90000,1.10000,0.90000
  3836,'MORROBAY    ',  20.0000,2,   2,   2,   1,0.99989,  17.3723,1.10000,0.90000,1.10000,0.90000
  3891,'GATES1      ', 500.0000,2,   2,   2,   1,1.00000,  -8.3924,1.10000,0.90000,1.10000,0.90000
  3892,'MIDWAY1     ', 500.0000,1,   2,   2,   1,0.99404,  11.8705,1.10000,0.90000,1.10000,0.90000
  3893,'MIDWAY2     ', 500.0000,1,   2,   2,   1,1.04618, -17.1124,1.10000,0.90000,1.10000,0.90000
  3894,'MIDWAY3     ', 500.0000,1,   2,   2,   1,0.99397,  12.0437,1.10000,0.90000,1.10000,0.90000
  3895,'MIDWAY4     ', 500.0000,1,   2,   2,   1,1.04693, -17.1697,1.10000,0.90000,1.10000,0.90000
  3896,'MIDWAY5     ', 500.0000,1,   2,   2,   1,0.99591,  12.5647,1.10000,0.90000,1.10000,0.90000
  3897,'MIDWAY6     ', 500.0000,1,   2,   2,   1,1.04519, -16.7409,1.10000,0.90000,1.10000,0.90000
  3901,'LOSBANOS    ', 500.0000,2,   2,   2,   1,1.00000,  18.6491,1.10000,0.90000,1.10000,0.90000
  3902,'MOSSLAND    ', 500.0000,2,   2,   2,   1,1.00000,  23.6302,1.10000,0.90000,1.10000,0.90000
  3903,'TESLA       ', 500.0000,2,   2,   2,   1,1.00000,  36.3265,1.10000,0.90000,1.10000,0.90000
  3904,'VACA-DIX    ', 500.0000,2,   2,   2,   1,1.00000,  37.9576,1.10000,0.90000,1.10000,0.90000
  3905,'TABLE MT    ', 500.0000,2,   2,   2,   1,1.00000,  45.9145,1.10000,0.90000,1.10000,0.90000
  3906,'ROUND MT    ', 500.0000,2,   2,   2,   1,1.00000,  53.1541,1.10000,0.90000,1.10000,0.90000
  3907,'BELLOTA     ', 230.0000,2,   2,   2,   1,1.00000,  23.7758,1.10000,0.90000,1.10000,0.90000
  3908,'BRIGHTON    ', 230.0000,2,   2,   2,   1,1.00000,  27.2774,1.10000,0.90000,1.10000,0.90000
  3909,'COLGATE     ', 230.0000,2,   2,   2,   1,1.00000,  33.0874,1.10000,0.90000,1.10000,0.90000
  3910,'CORTINA     ', 230.0000,2,   2,   2,   1,1.00000,  37.0814,1.10000,0.90000,1.10000,0.90000
  3911,'COTWDPGE    ', 230.0000,2,   2,   2,   1,1.00000,  52.4482,1.10000,0.90000,1.10000,0.90000
  3912,'GLENN       ', 230.0000,2,   2,   2,   1,1.00000,  43.8574,1.10000,0.90000,1.10000,0.90000
  3913,'GOLDHILL    ', 230.0000,2,   2,   2,   1,1.00000,  31.9653,1.10000,0.90000,1.10000,0.90000
  3914,'IGNACIO     ', 230.0000,2,   2,   2,   1,1.00000,  45.1411,1.10000,0.90000,1.10000,0.90000
  3915,'LAKEVILE    ', 230.0000,2,   2,   2,   1,1.00000,  41.8876,1.10000,0.90000,1.10000,0.90000
  3916,'LOGAN CR    ', 230.0000,2,   2,   2,   1,1.00000,  42.3584,1.10000,0.90000,1.10000,0.90000
  3917,'LOSBANOS    ', 230.0000,1,   2,   2,   1,1.00343,  16.1514,1.10000,0.90000,1.10000,0.90000
  3918,'MOSSLAND    ', 230.0000,1,   2,   2,   1,0.99968,  22.9228,1.10000,0.90000,1.10000,0.90000
  3919,'PALERMO     ', 230.0000,2,   2,   2,   1,1.00000,  35.0991,1.10000,0.90000,1.10000,0.90000
  3920,'RIO OSO     ', 230.0000,2,   2,   2,   1,1.00000,  32.5752,1.10000,0.90000,1.10000,0.90000
  3921,'ROUND MT    ', 230.0000,1,   2,   2,   1,1.07000,  60.7880,1.10000,0.90000,1.10000,0.90000
  3922,'TABLE MT    ', 230.0000,1,   2,   2,   1,1.00087,  38.7309,1.10000,0.90000,1.10000,0.90000
  3923,'TESLA       ', 230.0000,2,   2,   2,   1,1.01768,  35.5695,1.10000,0.90000,1.10000,0.90000
  3924,'VACA-DIX    ', 230.0000,1,   2,   2,   1,1.00058,  35.7759,1.10000,0.90000,1.10000,0.90000
  3925,'COTWDPGE    ', 115.0000,1,   2,   2,   1,1.00131,  52.1440,1.10000,0.90000,1.10000,0.90000
  3926,'RIO OSO     ', 115.0000,1,   2,   2,   1,0.99989,  33.2912,1.10000,0.90000,1.10000,0.90000
  3931,'ROUND MT    ',  20.0000,2,   2,   2,   1,1.07339,  61.1967,1.10000,0.90000,1.10000,0.90000
  3932,'MOSSLAND    ',  20.0000,2,   2,   2,   1,1.00000,  23.6302,1.10000,0.90000,1.10000,0.90000
  3933,'TESLA       ',  20.0000,2,   2,   2,   1,1.02000,  36.1635,1.10000,0.90000,1.10000,0.90000
  4001,'MALIN       ', 500.0000,2,   3,  11,   1,1.00000,  56.7685,1.10000,0.90000,1.10000,0.90000
  4002,'SUMMER L    ', 500.0000,2,   3,  11,   1,1.00000,  62.6589,1.10000,0.90000,1.10000,0.90000
  4003,'BURNS       ', 500.0000,2,   3,  11,   1,1.00000,  65.1697,1.10000,0.90000,1.10000,0.90000
  4004,'GRIZZLY     ', 500.0000,2,   3,  11,   1,1.00000,  68.4664,1.10000,0.90000,1.10000,0.90000
  4005,'JOHN DAY    ', 500.0000,2,   3,  11,   1,1.00000,  80.8157,1.10000,0.90000,1.10000,0.90000
  4006,'BIG EDDY    ', 500.0000,2,   3,  11,   1,1.00000,  78.8237,1.10000,0.90000,1.10000,0.90000
  4007,'CELILOCA    ', 500.0000,2,   3,  11,   1,1.00000,  78.7534,1.10000,0.90000,1.10000,0.90000
  4008,'MALIN       ', 345.0000,1,   3,  11,   1,1.00851,  54.5699,1.10000,0.90000,1.10000,0.90000
  4009,'BIG EDDY    ', 230.0000,1,   3,  11,   1,1.03140,  77.9727,1.10000,0.90000,1.10000,0.90000
  4010,'CELILO      ', 230.0000,1,   3,  11,   1,1.02436,  77.7437,1.10000,0.90000,1.10000,0.90000
  4031,'MALIN       ',  20.0000,2,   3,  11,   1,0.99886,  56.9234,1.10000,0.90000,1.10000,0.90000
  4035,'JOHN DAY    ',  20.0000,2,   3,  11,   1,0.99881,  81.8648,1.10000,0.90000,1.10000,0.90000
  4039,'DALLES21    ',  20.0000,2,   3,  13,   1,1.03923,  78.5073,1.10000,0.90000,1.10000,0.90000
  4090,'MALIN1      ', 500.0000,1,   3,  11,   1,1.00088,  61.7900,1.10000,0.90000,1.10000,0.90000
  4091,'GRIZZLY1    ', 500.0000,1,   3,  11,   1,1.00257,  66.0407,1.10000,0.90000,1.10000,0.90000
  4092,'GRIZZLY2    ', 500.0000,1,   3,  11,   1,1.00929,  59.6609,1.10000,0.90000,1.10000,0.90000
  4093,'GRIZZLY3    ', 500.0000,1,   3,  11,   1,1.01246,  58.5429,1.10000,0.90000,1.10000,0.90000
  4094,'GRIZZLY4    ', 500.0000,1,   3,  11,   1,0.99817,  67.2286,1.10000,0.90000,1.10000,0.90000
  4095,'GRIZZLY5    ', 500.0000,1,   3,  11,   1,1.00973,  59.1703,1.10000,0.90000,1.10000,0.90000
  4096,'GRIZZLY6    ', 500.0000,1,   3,  11,   1,1.01321,  57.9917,1.10000,0.90000,1.10000,0.90000
  4097,'GRIZZLY7    ', 500.0000,1,   3,  11,   1,0.99768,  67.1610,1.10000,0.90000,1.10000,0.90000
  4101,'COULEE      ', 500.0000,2,   3,  13,   1,1.00000,  99.4394,1.10000,0.90000,1.10000,0.90000
  4102,'HANFORD     ', 500.0000,2,   3,  13,   1,1.00000,  91.1804,1.10000,0.90000,1.10000,0.90000
  4103,'BELL        ', 500.0000,2,   3,  13,   1,1.00000,  86.6512,1.10000,0.90000,1.10000,0.90000
  4104,'BELL        ', 230.0000,1,   3,  13,   1,1.01883,  77.9089,1.10000,0.90000,1.10000,0.90000
  4131,'COULEE      ',  20.0000,2,   3,  13,   1,0.99863, 101.1290,1.10000,0.90000,1.10000,0.90000
  4132,'HANFORD     ',  20.0000,2,   3,  13,   1,1.00025,  92.7069,1.10000,0.90000,1.10000,0.90000
  4201,'NORTH       ', 500.0000,2,   3,  13,   1,1.00000,  93.7654,1.10000,0.90000,1.10000,0.90000
  4202,'WCASCADE    ', 500.0000,2,   3,  13,   1,1.00000,  76.9428,1.10000,0.90000,1.10000,0.90000
  4203,'WILLAMET    ', 500.0000,2,   3,  13,   1,1.00000,  71.2404,1.10000,0.90000,1.10000,0.90000
  4204,'MERIDIAN    ', 500.0000,2,   3,  13,   1,1.00000,  58.3070,1.10000,0.90000,1.10000,0.90000
  4231,'NORTH G3    ',  20.0000,2,   3,  13,   1,0.99970,  94.3885,1.10000,0.90000,1.10000,0.90000
  4232,'WCASCADE    ',  20.0000,2,   3,  13,   1,0.99834,  77.0036,1.10000,0.90000,1.10000,0.90000
  5001,'CANADA      ', 500.0000,2,   3,   4,   1,1.00000, 113.6304,1.10000,0.90000,1.10000,0.90000
  5002,'CANALB      ', 500.0000,2,   3,   1,   1,1.00000, 110.1949,1.10000,0.90000,1.10000,0.90000
  5003,'CA230TO     ', 230.0000,2,   3,   1,   1,1.00000, 106.0903,1.10000,0.90000,1.10000,0.90000
  5004,'CA230       ', 230.0000,2,   3,   4,   1,1.00000,  91.8348,1.10000,0.90000,1.10000,0.90000
  5031,'CANAD G1    ',  20.0000,2,   3,   4,   1,0.99607, 115.7558,1.10000,0.90000,1.10000,0.90000
  5032,'CMAIN GM    ',  20.0000,2,   3,   1,   1,0.99847, 111.9923,1.10000,0.90000,1.10000,0.90000
  6101,'MIDPOINT    ', 500.0000,2,   3,   6,   1,1.00000,  68.0453,1.10000,0.90000,1.10000,0.90000
  6102,'MIDPOINT    ', 345.0000,1,   3,   6,   1,1.01918,  68.7951,1.10000,0.90000,1.10000,0.90000
  6103,'BORAH       ', 345.0000,2,   3,   6,   1,1.00000,  68.2053,1.10000,0.90000,1.10000,0.90000
...
0 / END OF BUS DATA, BEGIN LOAD DATA
@!   I,'ID',STAT,AREA,ZONE,      PL,        QL,        IP,        IQ,        YP,        YQ, OWNER,SCALE,INTRPT,  DGENP,     DGENQ, DGENF
  1002,'1 ',   1,   1,   3,    92.847,   242.191,     0.000,     0.000,     0.000,     0.000,   1,    1,  0,     0.000,     0.000,   0
  1003,'1 ',   1,   1,  10,   918.327,  -160.764,     0.000,     0.000,     0.000,     0.000,   1,    1,  0,     0.000,     0.000,   0
  1004,'1 ',   1,   1,  10,   418.236,    -2.160,     0.000,     0.000,     0.000,     0.000,   1,    1,  0,     0.000,     0.000,   0
  1101,'1 ',   1,   1,   3,  1860.400,    55.757,     0.000,     0.000,     0.000,     0.000,   1,    1,  0,     0.000,     0.000,   0
  1102,'1 ',   1,   1,   3,    74.653,    -9.922,     0.000,     0.000,     0.000,     0.000,   1,    1,  0,     0.000,     0.000,   0
  1201,'1 ',   1,   1,   3,    63.908,     0.710,     0.000,     0.000,     0.000,     0.000,   1,    1,  0,     0.000,     0.000,   0
  1202,'1 ',   1,   1,   3,   336.488,  -102.168,     0.000,     0.000,     0.000,     0.000,   1,    1,  0,     0.000,     0.000,   0
  1301,'1 ',   1,   1,   3,  1074.230,  -134.094,     0.000,     0.000,     0.000,     0.000,   1,    1,  0,     0.000,     0.000,   0
  1302,'1 ',   1,   1,   9,     7.092,    -0.906,     0.000,     0.000,     0.000,     0.000,   1,    1,  0,     0.000,     0.000,   0
  1303,'1 ',   1,   1,   9,  2574.909,  -334.216,     0.000,     0.000,     0.000,     0.000,   1,    1,  0,     0.000,     0.000,   0
  1401,'1 ',   1,   1,   3,  2620.734,  -590.685,     0.000,     0.000,     0.000,     0.000,   1,    1,  0,     0.000,     0.000,   0
  1402,'1 ',   1,   1,   3,  2105.958,   222.681,     0.000,     0.000,     0.000,     0.000,   1,    1,  0,     0.000,     0.000,   0
  2000,'1 ',   1,   4,   7,   936.000,  -122.096,     0.000,     0.000,     0.000,     0.000,   1,    1,  0,     0.000,     0.000,   0
  2100,'1 ',   1,   2,   2,   262.801,   -49.518,     0.000,     0.000,     0.000,     0.000,   1,    1,  0,     0.000,     0.000,   0
  2202,'1 ',   1,   2,   2,   878.965,  -155.176,     0.000,     0.000,     0.000,     0.000,   1,    1,  0,     0.000,     0.000,   0
  2203,'1 ',   1,   2,   2,   951.130,  -154.140,     0.000,     0.000,     0.000,     0.000,   1,    1,  0,     0.000,     0.000,   0
  2400,'1 ',   1,   2,   2,   429.930,   -38.191,     0.000,     0.000,     0.000,     0.000,   1,    1,  0,     0.000,     0.000,   0
  2401,'1 ',   1,   2,   2,   438.598,   -49.824,     0.000,     0.000,     0.000,     0.000,   1,    1,  0,     0.000,     0.000,   0
  2402,'1 ',   1,   2,   2,   547.371,   -40.358,     0.000,     0.000,     0.000,     0.000,   1,    1,  0,     0.000,     0.000,   0
  2403,'1 ',   1,   2,   2,   536.197,   -19.264,     0.000,     0.000,     0.000,     0.000,   1,    1,  0,     0.000,     0.000,   0
  2405,'1 ',   1,   2,   2,   425.712,   -11.696,     0.000,     0.000,     0.000,     0.000,   1,    1,  0,     0.000,     0.000,   0
  2406,'1 ',   1,   2,   2,   382.165,    20.978,     0.000,     0.000,     0.000,     0.000,   1,    1,  0,     0.000,     0.000,   0
  2407,'1 ',   1,   2,   2,   933.605,    20.328,     0.000,     0.000,     0.000,     0.000,   1,    1,  0,     0.000,     0.000,   0
  2408,'1 ',   1,   2,   2,   901.451,    37.218,     0.000,     0.000,     0.000,     0.000,   1,    1,  0,     0.000,     0.000,   0
  2409,'1 ',   1,   2,   2,   819.349,    43.478,     0.000,     0.000,     0.000,     0.000,   1,    1,  0,     0.000,     0.000,   0
  2410,'1 ',   1,   2,   2,   818.261,   -30.031,     0.000,     0.000,     0.000,     0.000,   1,    1,  0,     0.000,     0.000,   0
  2411,'1 ',   1,   2,   2,   556.229,   -38.075,     0.000,     0.000,     0.000,     0.000,   1,    1,  0,     0.000,     0.000,   0
  2502,'1 ',   1,   2,   2,  1563.363,    59.384,     0.000,     0.000,     0.000,     0.000,   1,    1,  0,     0.000,     0.000,   0
  2503,'1 ',   1,   2,   2,  1232.899,  -133.707,     0.000,     0.000,     0.000,     0.000,   1,    1,  0,     0.000,     0.000,   0
  2600,'1 ',   1,   2,   2,  -948.985,     0.000,     0.000,     0.000,     0.000,     0.000,   1,    1,  0,     0.000,     0.000,   0
  2602,'1 ',   1,   2,   2,    73.011,    -9.334,     0.000,     0.000,     0.000,     0.000,   1,    1,  0,     0.000,     0.000,   0
  2604,'1 ',   1,   2,   2,  1068.682,     0.000,     0.000,     0.000,     0.000,     0.000,   1,    1,  0,     0.000,     0.000,   0
  2608,'1 ',   1,   2,   2,    73.427,    -9.440,     0.000,     0.000,     0.000,     0.000,   1,    1,  0,     0.000,     0.000,   0
  2609,'1 ',   1,   2,   2,   100.753,   -20.178,     0.000,     0.000,     0.000,     0.000,   1,    1,  0,     0.000,     0.000,   0
  2610,'1 ',   1,   2,   2,    74.231,    -9.648,     0.000,     0.000,     0.000,     0.000,   1,    1,  0,     0.000,     0.000,   0
  2611,'1 ',   1,   2,   2,    73.427,    -9.440,     0.000,     0.000,     0.000,     0.000,   1,    1,  0,     0.000,     0.000,   0
  2612,'1 ',   1,   2,   2,    88.973,   -18.136,     0.000,     0.000,     0.000,     0.000,   1,    1,  0,     0.000,     0.000,   0
  2613,'1 ',   1,   2,   2,   239.996,   -49.056,     0.000,     0.000,     0.000,     0.000,   1,    1,  0,     0.000,     0.000,   0
  2614,'1 ',   1,   2,   2,   102.723,   -20.816,     0.000,     0.000,     0.000,     0.000,   1,    1,  0,     0.000,     0.000,   0
  2615,'1 ',   1,   2,   2,   599.442,   -97.603,     0.000,     0.000,     0.000,     0.000,   1,    1,  0,     0.000,     0.000,   0
  2616,'1 ',   1,   2,   2,    87.574,   -18.041,     0.000,     0.000,     0.000,     0.000,   1,    1,  0,     0.000,     0.000,   0
  2617,'1 ',   1,   2,   2,    90.479,   -18.755,     0.000,     0.000,     0.000,     0.000,   1,    1,  0,     0.000,     0.000,   0
  2618,'1 ',   1,   2,   2,   654.537,     4.522,     0.000,     0.000,     0.000,     0.000,   1,    1,  0,     0.000,     0.000,   0
  2619,'1 ',   1,   2,   2, -1470.713,     0.000,     0.000,     0.000,     0.000,     0.000,   1,    1,  0,     0.000,     0.000,   0
  2620,'1 ',   1,   2,   2,   151.606,   -12.890,     0.000,     0.000,     0.000,     0.000,   1,    1,  0,     0.000,     0.000,   0
  2621,'1 ',   1,   2,   2,   174.677,    45.987,     0.000,     0.000,     0.000,     0.000,   1,    1,  0,     0.000,     0.000,   0
  3101,'1 ',   1,   2,   2,   176.991,   -27.966,     0.000,     0.000,     0.000,     0.000,   1,    1,  0,     0.000,     0.000,   0
  3102,'1 ',   1,   2,   2,    82.250,   -13.056,     0.000,     0.000,     0.000,     0.000,   1,    1,  0,     0.000,     0.000,   0
  3103,'1 ',   1,   2,   2,   276.799,   -39.721,     0.000,     0.000,     0.000,     0.000,   1,    1,  0,     0.000,     0.000,   0
  3104,'1 ',   1,   2,   2,   160.020,   -21.055,     0.000,     0.000,     0.000,     0.000,   1,    1,  0,     0.000,     0.000,   0
  3105,'1 ',   1,   2,   2,   121.560,   -24.937,     0.000,     0.000,     0.000,     0.000,   1,    1,  0,     0.000,     0.000,   0
  3201,'1 ',   1,   2,   2,   303.544,   -64.369,     0.000,     0.000,     0.000,     0.000,   1,    1,  0,     0.000,     0.000,   0
  3202,'1 ',   1,   2,   2,   384.867,   -54.949,     0.000,     0.000,     0.000,     0.000,   1,    1,  0,     0.000,     0.000,   0
  3203,'1 ',   1,   2,   2,   431.144,  -104.182,     0.000,     0.000,     0.000,     0.000,   1,    1,  0,     0.000,     0.000,   0
  3204,'1 ',   1,   2,   2,   433.622,   -61.186,     0.000,     0.000,     0.000,     0.000,   1,    1,  0,     0.000,     0.000,   0
  3205,'1 ',   1,   2,   2,   358.133,   -51.090,     0.000,     0.000,     0.000,     0.000,   1,    1,  0,     0.000,     0.000,   0
  3302,'1 ',   1,   2,   2,   230.201,   -58.217,     0.000,     0.000,     0.000,     0.000,   1,    1,  0,     0.000,     0.000,   0
  3303,'1 ',   1,   2,   2,   409.553,   -98.696,     0.000,     0.000,     0.000,     0.000,   1,    1,  0,     0.000,     0.000,   0
  3304,'1 ',   1,   2,   2,   353.459,   -82.194,     0.000,     0.000,     0.000,     0.000,   1,    1,  0,     0.000,     0.000,   0
  3305,'1 ',   1,   2,   2,   283.544,   -40.592,     0.000,     0.000,     0.000,     0.000,   1,    1,  0,     0.000,     0.000,   0
  3401,'1 ',   1,   2,   2,   301.842,   -76.681,     0.000,     0.000,     0.000,     0.000,   1,    1,  0,     0.000,     0.000,   0
  3403,'1 ',   1,   2,   2,   267.873,   -38.202,     0.000,     0.000,     0.000,     0.000,   1,    1,  0,     0.000,     0.000,   0
  3404,'1 ',   1,   2,   2,   230.954,   -33.174,     0.000,     0.000,     0.000,     0.000,   1,    1,  0,     0.000,     0.000,   0
  3405,'1 ',   1,   2,   2,   244.022,   -36.271,     0.000,     0.000,     0.000,     0.000,   1,    1,  0,     0.000,     0.000,   0
  3501,'1 ',   1,   2,   2,   351.800,   -50.103,     0.000,     0.000,     0.000,     0.000,   1,    1,  0,     0.000,     0.000,   0
  3601,'1 ',   1,   2,   2,    88.078,   -12.285,     0.000,     0.000,     0.000,     0.000,   1,    1,  0,     0.000,     0.000,   0
  3701,'1 ',   1,   1,   9,   189.500,    -9.472,     0.000,     0.000,     0.000,     0.000,   1,    1,  0,     0.000,     0.000,   0
  3801,'1 ',   1,   2,   2,   146.519,   -34.630,     0.000,     0.000,     0.000,     0.000,   1,    1,  0,     0.000,     0.000,   0
  3804,'1 ',   1,   2,   2,   180.243,   -44.705,     0.000,     0.000,     0.000,     0.000,   1,    1,  0,     0.000,     0.000,   0
  3805,'1 ',   1,   2,   2,   387.816,  -122.382,     0.000,     0.000,     0.000,     0.000,   1,    1,  0,     0.000,     0.000,   0
  3806,'1 ',   1,   2,   2,   228.418,   -32.020,     0.000,     0.000,     0.000,     0.000,   1,    1,  0,     0.000,     0.000,   0
  3902,'1 ',   1,   2,   2,    77.205,   -19.301,     0.000,     0.000,     0.000,     0.000,   1,    1,  0,     0.000,     0.000,   0
  3903,'1 ',   1,   2,   2,   106.952,   -15.088,     0.000,     0.000,     0.000,     0.000,   1,    1,  0,     0.000,     0.000,   0
  3907,'1 ',   1,   2,   2,   241.318,   -34.194,     0.000,     0.000,     0.000,     0.000,   1,    1,  0,     0.000,     0.000,   0
  3908,'1 ',   1,   2,   2,   104.779,   -13.405,     0.000,     0.000,     0.000,     0.000,   1,    1,  0,     0.000,     0.000,   0
  3909,'1 ',   1,   2,   2,    89.370,   -21.545,     0.000,     0.000,     0.000,     0.000,   1,    1,  0,     0.000,     0.000,   0
  3910,'1 ',   1,   2,   2,   128.087,   -19.144,     0.000,     0.000,     0.000,     0.000,   1,    1,  0,     0.000,     0.000,   0
  3911,'1 ',   1,   2,   2,   114.591,   -22.556,     0.000,     0.000,     0.000,     0.000,   1,    1,  0,     0.000,     0.000,   0
  3912,'1 ',   1,   2,   2,    87.986,     0.319,     0.000,     0.000,     0.000,     0.000,   1,    1,  0,     0.000,     0.000,   0
  3913,'1 ',   1,   2,   2,   168.775,   -22.575,     0.000,     0.000,     0.000,     0.000,   1,    1,  0,     0.000,     0.000,   0
  3914,'1 ',   1,   2,   2,   116.204,   -27.108,     0.000,     0.000,     0.000,     0.000,   1,    1,  0,     0.000,     0.000,   0
  3915,'1 ',   1,   2,   2,   129.439,   -27.383,     0.000,     0.000,     0.000,     0.000,   1,    1,  0,     0.000,     0.000,   0
  3916,'1 ',   1,   2,   2,    78.368,     0.000,     0.000,     0.000,     0.000,     0.000,   1,    1,  0,     0.000,     0.000,   0
  3917,'1 ',   1,   2,   2,   120.080,   -22.158,     0.000,     0.000,     0.000,     0.000,   1,    1,  0,     0.000,     0.000,   0
  3918,'1 ',   1,   2,   2,   162.350,   -38.665,     0.000,     0.000,     0.000,     0.000,   1,    1,  0,     0.000,     0.000,   0
  3919,'1 ',   1,   2,   2,    96.257,   -12.994,     0.000,     0.000,     0.000,     0.000,   1,    1,  0,     0.000,     0.000,   0
  3920,'1 ',   1,   2,   2,    89.055,   -12.505,     0.000,     0.000,     0.000,     0.000,   1,    1,  0,     0.000,     0.000,   0
  3921,'1 ',   1,   2,   2,    71.164,   -15.348,     0.000,     0.000,     0.000,     0.000,   1,    1,  0,     0.000,     0.000,   0
  3922,'1 ',   1,   2,   2,   129.980,   -16.636,     0.000,     0.000,     0.000,     0.000,   1,    1,  0,     0.000,     0.000,   0
  3923,'1 ',   1,   2,   2,   198.183,   -32.756,     0.000,     0.000,     0.000,     0.000,   1,    1,  0,     0.000,     0.000,   0
  3924,'1 ',   1,   2,   2,   168.295,   -23.946,     0.000,     0.000,     0.000,     0.000,   1,    1,  0,     0.000,     0.000,   0
  3926,'1 ',   1,   2,   2,   136.933,    -8.665,     0.000,     0.000,     0.000,     0.000,   1,    1,  0,     0.000,     0.000,   0
  4002,'1 ',   1,   3,  11,   118.853,   -14.197,     0.000,     0.000,     0.000,     0.000,   1,    1,  0,     0.000,     0.000,   0
  4004,'1 ',   1,   3,  11,   190.913,   -22.864,     0.000,     0.000,     0.000,     0.000,   1,    1,  0,     0.000,     0.000,   0
  4005,'1 ',   1,   3,  11,   341.971,  -103.819,     0.000,     0.000,     0.000,     0.000,   1,    1,  0,     0.000,     0.000,   0
  4008,'1 ',   1,   3,  11,   203.935,   -24.735,     0.000,     0.000,     0.000,     0.000,   1,    1,  0,     0.000,     0.000,   0
  4009,'1 ',   1,   3,  11,  1573.222,  -284.509,     0.000,     0.000,     0.000,     0.000,   1,    1,  0,     0.000,     0.000,   0
  4010,'1 ',   1,   3,  11,  1558.741,     0.000,     0.000,     0.000,     0.000,     0.000,   1,    1,  0,     0.000,     0.000,   0
  4101,'1 ',   1,   3,  13,   678.570,   -78.464,     0.000,     0.000,     0.000,     0.000,   1,    1,  0,     0.000,     0.000,   0
  4102,'1 ',   1,   3,  13,   337.354,   -43.972,     0.000,     0.000,     0.000,     0.000,   1,    1,  0,     0.000,     0.000,   0
  4103,'1 ',   1,   3,  13,     8.312,    -1.002,     0.000,     0.000,     0.000,     0.000,   1,    1,  0,     0.000,     0.000,   0
  4104,'1 ',   1,   3,  13,  1865.426,  -233.444,     0.000,     0.000,     0.000,     0.000,   1,    1,  0,     0.000,     0.000,   0
  4201,'1 ',   1,   3,  13,  3957.980,  -282.713,     0.000,     0.000,     0.000,     0.000,   1,    1,  0,     0.000,     0.000,   0
  4202,'1 ',   1,   3,  13,  3307.958,  -407.100,     0.000,     0.000,     0.000,     0.000,   1,    1,  0,     0.000,     0.000,   0
  4203,'1 ',   1,   3,  13,  3314.269,  -425.324,     0.000,     0.000,     0.000,     0.000,   1,    1,  0,     0.000,     0.000,   0
  4204,'1 ',   1,   3,  13,   730.504,   -89.196,     0.000,     0.000,     0.000,     0.000,   1,    1,  0,     0.000,     0.000,   0
  5001,'1 ',   1,   3,   4,  4984.641, -1078.927,     0.000,     0.000,     0.000,     0.000,   1,    1,  0,     0.000,     0.000,   0
  5002,'1 ',   1,   3,   1,  6221.995,  -769.207,     0.000,     0.000,     0.000,     0.000,   1,    1,  0,     0.000,     0.000,   0
  5003,'1 ',   1,   3,   1,   407.197,   -50.876,     0.000,     0.000,     0.000,     0.000,   1,    1,  0,     0.000,     0.000,   0
  6102,'1 ',   1,   3,   6,   586.782,   186.776,     0.000,     0.000,     0.000,     0.000,   1,    1,  0,     0.000,     0.000,   0
  6103,'1 ',   1,   3,   6,   221.781,   -28.524,     0.000,     0.000,     0.000,     0.000,   1,    1,  0,     0.000,     0.000,   0
  6104,'1 ',   1,   3,   6,   966.224,  -125.190,     0.000,     0.000,     0.000,     0.000,   1,    1,  0,     0.000,     0.000,   0
  6201,'1 ',   1,   3,   8,    78.323,    -9.642,     0.000,     0.000,     0.000,     0.000,   1,    1,  0,     0.000,     0.000,   0
  6202,'1 ',   1,   3,   8,    32.802,    -4.584,     0.000,     0.000,     0.000,     0.000,   1,    1,  0,     0.000,     0.000,   0
  6203,'1 ',   1,   3,   8,   245.754,   -57.935,     0.000,     0.000,     0.000,     0.000,   1,    1,  0,     0.000,     0.000,   0
  6204,'1 ',   1,   3,   8,   269.274,   -57.513,     0.000,     0.000,     0.000,     0.000,   1,    1,  0,     0.000,     0.000,   0
  6205,'1 ',   1,   3,   8,   187.967,   -31.591,     0.000,     0.000,     0.000,     0.000,   1,    1,  0,     0.000,     0.000,   0
  6301,'1 ',   1,   3,  14,   205.177,   -26.365,     0.000,     0.000,     0.000,     0.000,   1,    1,  0,     0.000,     0.000,   0
  6302,'1 ',   1,   3,  14,   237.354,   -30.791,     0.000,     0.000,     0.000,     0.000,   1,    1,  0,     0.000,     0.000,   0
  6303,'1 ',   1,   3,  14,   292.389,   -37.035,     0.000,     0.000,     0.000,     0.000,   1,    1,  0,     0.000,     0.000,   0
  6305,'1 ',   1,   3,  14,    22.921,    -7.091,     0.000,     0.000,     0.000,     0.000,   1,    1,  0,     0.000,     0.000,   0
  6401,'1 ',   1,   1,   9,   895.751,  -113.771,     0.000,     0.000,     0.000,     0.000,   1,    1,  0,     0.000,     0.000,   0
  6402,'1 ',   1,   1,   9,   148.993,   -19.327,     0.000,     0.000,     0.000,     0.000,   1,    1,  0,     0.000,     0.000,   0
  6403,'1 ',   1,   1,   9,     1.089,    -0.122,     0.000,     0.000,     0.000,     0.000,   1,    1,  0,     0.000,     0.000,   0
  6404,'1 ',   1,   1,   9,    15.126,    -1.870,     0.000,     0.000,     0.000,     0.000,   1,    1,  0,     0.000,     0.000,   0
  6501,'1 ',   1,   3,  12,    77.865,   -25.207,     0.000,     0.000,     0.000,     0.000,   1,    1,  0,     0.000,     0.000,   0
  6502,'1 ',   1,   3,  12,   620.927,  -109.678,     0.000,     0.000,     0.000,     0.000,   1,    1,  0,     0.000,     0.000,   0
  6503,'1 ',   1,   3,  12,   167.090,   -51.427,     0.000,     0.000,     0.000,     0.000,   1,    1,  0,     0.000,     0.000,   0
  6504,'1 ',   1,   3,  12,   118.482,   -15.284,     0.000,     0.000,     0.000,     0.000,   1,    1,  0,     0.000,     0.000,   0
  6505,'1 ',   1,   3,  12,     2.644,    -0.837,     0.000,     0.000,     0.000,     0.000,   1,    1,  0,     0.000,     0.000,   0
  6507,'1 ',   1,   3,  12,   212.916,    23.579,     0.000,     0.000,     0.000,     0.000,   1,    1,  0,     0.000,     0.000,   0
  6508,'1 ',   1,   3,  12,    52.032,   -16.686,     0.000,     0.000,     0.000,     0.000,   1,    1,  0,     0.000,     0.000,   0
  6509,'1 ',   1,   3,  12,     3.427,    -1.110,     0.000,     0.000,     0.000,     0.000,   1,    1,  0,     0.000,     0.000,   0
  6510,'1 ',   1,   3,  12,   795.425,    45.134,     0.000,     0.000,     0.000,     0.000,   1,    1,  0,     0.000,     0.000,   0
  7001,'1 ',   1,   3,   5,  2768.629,  -299.450,     0.000,     0.000,     0.000,     0.000,   1,    1,  0,     0.000,     0.000,   0
  7002,'1 ',   1,   3,   5,  1015.329,    54.060,     0.000,     0.000,     0.000,     0.000,   1,    1,  0,     0.000,     0.000,   0
  8003,'1 ',   1,   2,   2,   160.061,   -19.423,     0.000,     0.000,     0.000,     0.000,   1,    1,  0,     0.000,     0.000,   0
  8004,'1 ',   1,   2,   2,   998.613,  -130.264,     0.000,     0.000,     0.000,     0.000,   1,    1,  0,     0.000,     0.000,   0
  8005,'1 ',   1,   2,   2,   355.383,   -47.304,     0.000,     0.000,     0.000,     0.000,   1,    1,  0,     0.000,     0.000,   0
0 / END OF LOAD DATA, BEGIN FIXED SHUNT DATA
@!   I,'ID',STATUS,  GL,        BL
0 / END OF FIXED SHUNT DATA, BEGIN GENERATOR DATA
@!   I,'ID',      PG,        QG,        QT,        QB,     VS,    IREG,     MBASE,     ZR,         ZX,         RT,         XT,     GTAP,STAT, RMPCT,      PT,        PB,    O1,    F1,  O2,    F2,  O3,    F3,  O4,    F4,WMOD, WPF,NREG
  1003,'AD',     0.000,  -315.413, 99999.000,-99999.000,1.00000,  1003,   100.000, 0.00000E+0, 1.00000E+0, 0.00000E+0, 0.00000E+0,1.00000,1,  100.0, 99999.000,-99999.000,   1,1.0000
  1004,'AD',     0.000,   -76.929, 99999.000,-99999.000,1.00000,  1004,   100.000, 0.00000E+0, 1.00000E+0, 0.00000E+0, 0.00000E+0,1.00000,1,  100.0, 99999.000,-99999.000,   1,1.0000
  1032,'AD',     0.000,  1047.602, 99999.000,-99999.000,1.01400,  1002,   100.000, 0.00000E+0, 1.00000E+0, 0.00000E+0, 0.00000E+0,1.00000,1,  100.0, 99999.000,-99999.000,   1,1.0000
  1032,'C ',   873.000,   200.000,   200.000,  -200.000,1.01400,  1002,   895.617, 0.00000E+0, 2.00000E-1, 0.00000E+0, 0.00000E+0,1.00000,1,  100.0,   873.000,     0.000,   1,1.0000
  1032,'G ',     0.000,   344.074,   357.000,  -357.000,1.01400,  1002,  1109.031, 0.00000E+0, 2.00000E-1, 0.00000E+0, 0.00000E+0,1.00000,0,  100.0,  1050.000,     0.000,   1,1.0000
  1032,'S ',     0.000,   209.017,   255.200,  -255.200,1.01400,  1002,   687.147, 0.00000E+0, 2.00000E-1, 0.00000E+0, 0.00000E+0,1.00000,0,  100.0,   638.000,     0.000,   1,1.0000,   0,   1.0,   0,   1.0,   0,   1.0, 1, 1.0000
  1034,'C ',  1944.000,   -55.946,   500.000,  -500.000,1.03000,  1004,  2007.271, 0.00000E+0, 2.00000E-1, 0.00000E+0, 0.00000E+0,1.00000,1,  100.0,  1944.000,     0.000,   1,1.0000
  1034,'G ',     0.000,   168.193,   918.000,  -918.000,1.03000,  1004,  2851.793, 0.00000E+0, 2.00000E-1, 0.00000E+0, 0.00000E+0,1.00000,0,  100.0,  2700.000,     0.000,   1,1.0000
  1034,'W ',   729.108,   -20.983,   672.800,  -672.800,1.03000,  1004,  1811.569, 0.00000E+0, 2.00000E-1, 0.00000E+0, 0.00000E+0,1.00000,1,  100.0,  1682.000,     0.000,   1,1.0000,   0,   1.0,   0,   1.0,   0,   1.0, 1, 1.0000
  1101,'AD',     0.000,    24.993, 99999.000,-99999.000,1.00000,  1101,   100.000, 0.00000E+0, 1.00000E+0, 0.00000E+0, 0.00000E+0,1.00000,1,  100.0, 99999.000,-99999.000,   1,1.0000
  1102,'AD',     0.000,   199.732, 99999.000,-99999.000,1.00000,  1102,   100.000, 0.00000E+0, 1.00000E+0, 0.00000E+0, 0.00000E+0,1.00000,1,  100.0, 99999.000,-99999.000,   1,1.0000
  1131,'C ',  1268.000,    24.993,   308.000,  -308.000,1.01000,  1101,  1304.871, 0.00000E+0, 2.00000E-1, 0.00000E+0, 0.00000E+0,1.00000,1,  100.0,  1268.000,     0.000,   1,1.0000
  1131,'G ',     0.000,   121.365,  1916.000, -1916.000,1.01000,  1101,  5292.958, 0.00000E+0, 2.00000E-1, 0.00000E+0, 0.00000E+0,1.00000,0,  100.0,  4934.000,     0.000,   1,1.0000
  1201,'AD',     0.000,  -329.835, 99999.000,-99999.000,1.00000,  1201,   100.000, 0.00000E+0, 1.00000E+0, 0.00000E+0, 0.00000E+0,1.00000,1,  100.0, 99999.000,-99999.000,   1,1.0000
  1202,'AD',     0.000,-16540.445, 99999.000,-99999.000,1.00000,  1202,   100.000, 0.00000E+0, 1.00000E+0, 0.00000E+0, 0.00000E+0,1.00000,1,  100.0, 99999.000,-99999.000,   1,1.0000
  1232,'C ',  1878.548, 13331.354,  1208.000, -1208.000,1.08000,  1202,  5121.503, 0.00000E+0, 2.00000E-1, 0.00000E+0, 0.00000E+0,1.00000,1,  100.0,  4977.000,     0.000,   1,1.0000
  1232,'H ',   558.350,  3962.402,   479.600,  -479.600,1.08000,  1202,  1291.363, 0.00000E+0, 2.00000E-1, 0.00000E+0, 0.00000E+0,1.00000,1,  100.0,  1199.000,     0.000,   1,1.0000
  1301,'AD',     0.000,   -92.650, 99999.000,-99999.000,1.00000,  1301,   100.000, 0.00000E+0, 1.00000E+0, 0.00000E+0, 0.00000E+0,1.00000,1,  100.0, 99999.000,-99999.000,   1,1.0000
  1302,'AD',     0.000,  -149.422, 99999.000,-99999.000,1.00000,  1302,   100.000, 0.00000E+0, 1.00000E+0, 0.00000E+0, 0.00000E+0,1.00000,1,  100.0, 99999.000,-99999.000,   1,1.0000
  1331,'G ',     0.000,    37.119,   841.000,  -841.000,1.04500,  1301,  2324.472, 0.00000E+0, 2.00000E-1, 0.00000E+0, 0.00000E+0,1.00000,0,  100.0,  2167.000,     0.000,   1,1.0000
  1331,'H ',   824.550,   -92.650,   931.200,  -931.200,1.04500,  1301,  2507.333, 0.00000E+0, 2.00000E-1, 0.00000E+0, 0.00000E+0,1.00000,1,  100.0,  2328.000,     0.000,   1,1.0000
  1333,'C ',   418.000,    -5.582,   167.200,  -167.200,1.00500,  1303,   450.200, 0.00000E+0, 2.00000E-1, 0.00000E+0, 0.00000E+0,1.00000,1,  100.0,   418.000,     0.000,   1,1.0000
  1333,'G ',  2208.407,   -29.493,  2746.000, -2746.000,1.00500,  1303,  7529.584, 0.00000E+0, 2.00000E-1, 0.00000E+0, 0.00000E+0,1.00000,1,  100.0,  7011.000,     0.000,   1,1.0000
  1333,'S ',     0.000,   205.553,   969.200,  -969.200,1.00500,  1303,  2609.651, 0.00000E+0, 2.00000E-1, 0.00000E+0, 0.00000E+0,1.00000,0,  100.0,  2423.000,     0.000,   1,1.0000,   0,   1.0,   0,   1.0,   0,   1.0, 1, 1.0000
  1401,'AD',     0.000,  -281.215, 99999.000,-99999.000,1.00000,  1401,   100.000, 0.00000E+0, 1.00000E+0, 0.00000E+0, 0.00000E+0,1.00000,1,  100.0, 99999.000,-99999.000,   1,1.0000
  1402,'AD',     0.000,    -6.498, 99999.000,-99999.000,1.00000,  1402,   100.000, 0.00000E+0, 1.00000E+0, 0.00000E+0, 0.00000E+0,1.00000,1,  100.0, 99999.000,-99999.000,   1,1.0000
  1403,'AD',     0.000,   -13.102, 99999.000,-99999.000,1.00000,  1403,   100.000, 0.00000E+0, 1.00000E+0, 0.00000E+0, 0.00000E+0,1.00000,1,  100.0, 99999.000,-99999.000,   1,1.0000
  1431,'G ',     0.000,   797.425,  3559.000, -3559.000,1.03500,  1401,  9836.432, 0.00000E+0, 2.00000E-1, 0.00000E+0, 0.00000E+0,1.00000,0,  100.0,  9170.000,     0.000,   1,1.0000
  1431,'N ',  3066.000,  -281.215,  1684.000, -1684.000,1.03500,  1401,  4534.309, 0.00000E+0, 2.00000E-1, 0.00000E+0, 0.00000E+0,1.00000,1,  100.0,  4210.000,     0.000,   1,1.0000
  1431,'S ',     0.000,   210.356,   967.600,  -967.600,1.03500,  1401,  2605.343, 0.00000E+0, 2.00000E-1, 0.00000E+0, 0.00000E+0,1.00000,0,  100.0,  2419.000,     0.000,   1,1.0000,   0,   1.0,   0,   1.0,   0,   1.0, 1, 1.0000
  2000,'AD',     0.000,   -39.858, 99999.000,-99999.000,1.00000,  2000,   100.000, 0.00000E+0, 1.00000E+0, 0.00000E+0, 0.00000E+0,1.00000,1,  100.0, 99999.000,-99999.000,   1,1.0000
  2030,'E ',   520.000,   -39.858,   279.600,  -279.600,1.00000,  2000,   752.846, 0.00000E+0, 2.00000E-1, 0.00000E+0, 0.00000E+0,1.00000,1,  100.0,   699.000,     0.000,   1,1.0000
  2030,'G ',     0.000,   235.477,   856.000,  -856.000,1.00000,  2000,  2304.851, 0.00000E+0, 2.00000E-1, 0.00000E+0, 0.00000E+0,1.00000,0,  100.0,  2140.000,     0.000,   1,1.0000
  2100,'AD',     0.000,   -20.114, 99999.000,-99999.000,1.00000,  2100,   100.000, 0.00000E+0, 1.00000E+0, 0.00000E+0, 0.00000E+0,1.00000,1,  100.0, 99999.000,-99999.000,   1,1.0000
  2130,'E ',   407.000,   -12.156,   254.000,  -254.000,1.03500,  2100,   868.952, 0.00000E+0, 2.00000E-1, 0.00000E+0, 0.00000E+0,1.00000,1,  100.0,   831.000,     0.000,   1,1.0000
  2130,'G ',     0.000,    54.601,   200.000,  -200.000,1.03500,  2100,   619.190, 0.00000E+0, 2.00000E-1, 0.00000E+0, 0.00000E+0,1.00000,0,  100.0,   586.000,     0.000,   1,1.0000
  2130,'H ',   266.458,    -7.958,   158.400,  -158.400,1.03500,  2100,   426.505, 0.00000E+0, 2.00000E-1, 0.00000E+0, 0.00000E+0,1.00000,1,  100.0,   396.000,     0.000,   1,1.0000
  2130,'S ',     0.000,    10.677,    46.000,   -46.000,1.03500,  2100,   123.859, 0.00000E+0, 2.00000E-1, 0.00000E+0, 0.00000E+0,1.00000,0,  100.0,   115.000,     0.000,   1,1.0000,   0,   1.0,   0,   1.0,   0,   1.0, 1, 1.0000
  2201,'AD',     0.000,   -71.882, 99999.000,-99999.000,1.00000,  2201,   100.000, 0.00000E+0, 1.00000E+0, 0.00000E+0, 0.00000E+0,1.00000,1,  100.0, 99999.000,-99999.000,   1,1.0000
  2203,'AD',     0.000,   -58.526, 99999.000,-99999.000,1.00000,  2203,   100.000, 0.00000E+0, 1.00000E+0, 0.00000E+0, 0.00000E+0,1.00000,1,  100.0, 99999.000,-99999.000,   1,1.0000
  2233,'DG',     0.000,   136.789,   304.000,  -304.000,1.00500,  2203,  1078.722, 0.00000E+0, 2.00000E-1, 0.00000E+0, 0.00000E+0,1.00000,0,  100.0,  1035.000,     0.000,   1,1.0000
  2233,'EG',     0.000,   242.861,   611.000,  -611.000,1.00500,  2203,  1935.947, 0.00000E+0, 2.00000E-1, 0.00000E+0, 0.00000E+0,1.00000,0,  100.0,  1837.000,     0.000,   1,1.0000
  2233,'TG',     0.000,    96.952,   206.000,  -206.000,1.00500,  2203,   761.397, 0.00000E+0, 2.00000E-1, 0.00000E+0, 0.00000E+0,1.00000,0,  100.0,   733.000,     0.000,   1,1.0000
  2301,'AD',     0.000,   133.643, 99999.000,-99999.000,1.00000,  2301,   100.000, 0.00000E+0, 1.00000E+0, 0.00000E+0, 0.00000E+0,1.00000,1,  100.0, 99999.000,-99999.000,   1,1.0000
  2332,'S ',     0.000,   128.939,   533.200,  -533.200,1.03500,  2302,  1435.685, 0.00000E+0, 2.00000E-1, 0.00000E+0, 0.00000E+0,1.00000,0,  100.0,  1333.000,     0.000,   1,1.0000,   0,   1.0,   0,   1.0,   0,   1.0, 1, 1.0000
  2400,'AD',     0.000,   -74.733, 99999.000,-99999.000,1.00000,  2400,   100.000, 0.00000E+0, 1.00000E+0, 0.00000E+0, 0.00000E+0,1.00000,1,  100.0, 99999.000,-99999.000,   1,1.0000
  2401,'AD',     0.000,    22.142, 99999.000,-99999.000,1.00000,  2401,   100.000, 0.00000E+0, 1.00000E+0, 0.00000E+0, 0.00000E+0,1.00000,1,  100.0, 99999.000,-99999.000,   1,1.0000
  2402,'AD',     0.000,   269.679, 99999.000,-99999.000,1.00000,  2402,   100.000, 0.00000E+0, 1.00000E+0, 0.00000E+0, 0.00000E+0,1.00000,1,  100.0, 99999.000,-99999.000,   1,1.0000
  2403,'AD',     0.000,   -52.294, 99999.000,-99999.000,1.00000,  2403,   100.000, 0.00000E+0, 1.00000E+0, 0.00000E+0, 0.00000E+0,1.00000,1,  100.0, 99999.000,-99999.000,   1,1.0000
  2404,'AD',     0.000,  1343.527, 99999.000,-99999.000,1.00000,  2404,   100.000, 0.00000E+0, 1.00000E+0, 0.00000E+0, 0.00000E+0,1.00000,1,  100.0, 99999.000,-99999.000,   1,1.0000
  2405,'AD',     0.000,   -97.957, 99999.000,-99999.000,1.00000,  2405,   100.000, 0.00000E+0, 1.00000E+0, 0.00000E+0, 0.00000E+0,1.00000,1,  100.0, 99999.000,-99999.000,   1,1.0000
  2406,'AD',     0.000,    40.824, 99999.000,-99999.000,1.00000,  2406,   100.000, 0.00000E+0, 1.00000E+0, 0.00000E+0, 0.00000E+0,1.00000,1,  100.0, 99999.000,-99999.000,   1,1.0000
  2407,'AD',     0.000,   155.770, 99999.000,-99999.000,1.00000,  2407,   100.000, 0.00000E+0, 1.00000E+0, 0.00000E+0, 0.00000E+0,1.00000,1,  100.0, 99999.000,-99999.000,   1,1.0000
  2408,'AD',     0.000,    54.284, 99999.000,-99999.000,1.00000,  2408,   100.000, 0.00000E+0, 1.00000E+0, 0.00000E+0, 0.00000E+0,1.00000,1,  100.0, 99999.000,-99999.000,   1,1.0000
  2410,'AD',     0.000,   102.337, 99999.000,-99999.000,1.00000,  2410,   100.000, 0.00000E+0, 1.00000E+0, 0.00000E+0, 0.00000E+0,1.00000,1,  100.0, 99999.000,-99999.000,   1,1.0000
  2431,'S ',     0.000,   367.573,   666.400,  -666.400,1.05000,  2431,  1794.337, 0.00000E+0, 2.00000E-1, 0.00000E+0, 0.00000E+0,1.00000,0,  100.0,  1666.000,     0.000,   1,1.0000,   0,   1.0,   0,   1.0,   0,   1.0, 1, 1.0000
  2434,'S ',     0.000,  -213.713,   500.000,  -500.000,1.02000,  2434,  1570.707, 0.00000E+0, 2.00000E-1, 0.00000E+0, 0.00000E+0,1.00000,0,  100.0,  1489.000,     0.000,   1,1.0000,   0,   1.0,   0,   1.0,   0,   1.0, 1, 1.0000
  2438,'EG',   961.535,    18.795,   728.000,  -728.000,1.00900,  2408,  2404.838, 0.00000E+0, 2.00000E-1, 0.00000E+0, 0.00000E+0,1.00000,1,  100.0,  2292.000,     0.000,   1,1.0000
  2438,'ND',     0.000,     0.000,     0.500,    -0.500,1.00900,  2408,     0.500, 0.00000E+0, 2.00000E-1, 0.00000E+0, 0.00000E+0,1.00000,0,  100.0,     0.000, -1006.000,   1,1.0000
  2438,'RG',     0.000,    70.054,  1902.000, -1902.000,1.00900,  2408,  5773.301, 0.00000E+0, 2.00000E-1, 0.00000E+0, 0.00000E+0,1.00000,0,  100.0,  5451.000,     0.000,   1,1.0000
  2438,'S ',     0.000,    14.702,   458.400,  -458.400,1.00900,  2408,  1234.280, 0.00000E+0, 2.00000E-1, 0.00000E+0, 0.00000E+0,1.00000,0,  100.0,  1146.000,     0.000,   1,1.0000,   0,   1.0,   0,   1.0,   0,   1.0, 1, 1.0000
  2438,'SG',   918.480,    17.953,  1644.000, -1644.000,1.00900,  2408,  4426.605, 0.00000E+0, 2.00000E-1, 0.00000E+0, 0.00000E+0,1.00000,1,  100.0,  4110.000,     0.000,   1,1.0000
  2438,'SH',   789.738,    15.437,   584.000,  -584.000,1.00900,  2408,  1572.468, 0.00000E+0, 2.00000E-1, 0.00000E+0, 0.00000E+0,1.00000,1,  100.0,  1460.000,     0.000,   1,1.0000
  2438,'SW',   107.364,     2.099,   561.000,  -561.000,1.00900,  2408,  3258.653, 0.00000E+0, 2.00000E-1, 0.00000E+0, 0.00000E+0,1.00000,1,  100.0,  3210.000,     0.000,   1,1.0000,   0,   1.0,   0,   1.0,   0,   1.0, 1, 1.0000
  2438,'WG',     0.000,    74.740,  1910.000, -1910.000,1.00900,  2408,  6122.547, 0.00000E+0, 2.00000E-1, 0.00000E+0, 0.00000E+0,1.00000,0,  100.0,  5817.000,     0.000,   1,1.0000
  2439,'S ',     0.000,  -206.012,   666.400,  -666.400,1.02000,  2409,  1794.337, 0.00000E+0, 2.00000E-1, 0.00000E+0, 0.00000E+0,1.00000,0,  100.0,  1666.000,     0.000,   1,1.0000,   0,   1.0,   0,   1.0,   0,   1.0, 1, 1.0000
  2501,'AD',     0.000,   368.037, 99999.000,-99999.000,1.00000,  2501,   100.000, 0.00000E+0, 1.00000E+0, 0.00000E+0, 0.00000E+0,1.00000,1,  100.0, 99999.000,-99999.000,   1,1.0000
  2503,'AD',     0.000,   288.887, 99999.000,-99999.000,1.00000,  2503,   100.000, 0.00000E+0, 1.00000E+0, 0.00000E+0, 0.00000E+0,1.00000,1,  100.0, 99999.000,-99999.000,   1,1.0000
  2533,'S ',     0.000,   224.930,   799.600,  -799.600,1.00900,  2503,  2152.989, 0.00000E+0, 2.00000E-1, 0.00000E+0, 0.00000E+0,1.00000,0,  100.0,  1999.000,     0.000,   1,1.0000,   0,   1.0,   0,   1.0,   0,   1.0, 1, 1.0000
  2600,'AD',     0.000,  -145.296, 99999.000,-99999.000,1.00000,  2600,   100.000, 0.00000E+0, 1.00000E+0, 0.00000E+0, 0.00000E+0,1.00000,1,  100.0, 99999.000,-99999.000,   1,1.0000
  2601,'AD',     0.000,  -133.187, 99999.000,-99999.000,1.00000,  2601,   100.000, 0.00000E+0, 1.00000E+0, 0.00000E+0, 0.00000E+0,1.00000,1,  100.0, 99999.000,-99999.000,   1,1.0000
  2602,'AD',     0.000,   -16.990, 99999.000,-99999.000,1.00000,  2602,   100.000, 0.00000E+0, 1.00000E+0, 0.00000E+0, 0.00000E+0,1.00000,1,  100.0, 99999.000,-99999.000,   1,1.0000
  2603,'AD',     0.000,  -130.106, 99999.000,-99999.000,1.00000,  2603,   100.000, 0.00000E+0, 1.00000E+0, 0.00000E+0, 0.00000E+0,1.00000,1,  100.0, 99999.000,-99999.000,   1,1.0000
  2604,'AD',     0.000,    15.850, 99999.000,-99999.000,1.00000,  2604,   100.000, 0.00000E+0, 1.00000E+0, 0.00000E+0, 0.00000E+0,1.00000,1,  100.0, 99999.000,-99999.000,   1,1.0000
  2608,'AD',     0.000,   -17.955, 99999.000,-99999.000,1.00000,  2608,   100.000, 0.00000E+0, 1.00000E+0, 0.00000E+0, 0.00000E+0,1.00000,1,  100.0, 99999.000,-99999.000,   1,1.0000
  2609,'AD',     0.000,   -31.565, 99999.000,-99999.000,1.00000,  2609,   100.000, 0.00000E+0, 1.00000E+0, 0.00000E+0, 0.00000E+0,1.00000,1,  100.0, 99999.000,-99999.000,   1,1.0000
  2610,'AD',     0.000,   -21.756, 99999.000,-99999.000,1.00000,  2610,   100.000, 0.00000E+0, 1.00000E+0, 0.00000E+0, 0.00000E+0,1.00000,1,  100.0, 99999.000,-99999.000,   1,1.0000
  2611,'AD',     0.000,   -34.715, 99999.000,-99999.000,1.00000,  2611,   100.000, 0.00000E+0, 1.00000E+0, 0.00000E+0, 0.00000E+0,1.00000,1,  100.0, 99999.000,-99999.000,   1,1.0000
  2613,'AD',     0.000,   -41.542, 99999.000,-99999.000,1.00000,  2613,   100.000, 0.00000E+0, 1.00000E+0, 0.00000E+0, 0.00000E+0,1.00000,1,  100.0, 99999.000,-99999.000,   1,1.0000
  2630,'G ',     0.000,   203.269,  1346.000, -1346.000,1.00400,  2610,  4170.195, 0.00000E+0, 2.00000E-1, 0.00000E+0, 0.00000E+0,1.00000,0,  100.0,  3947.000,     0.000,   1,1.0000
  2631,'S ',     0.000,    72.187,   208.000,  -208.000,1.01500,  2611,   560.057, 0.00000E+0, 2.00000E-1, 0.00000E+0, 0.00000E+0,1.00000,0,  100.0,   520.000,     0.000,   1,1.0000,   0,   1.0,   0,   1.0,   0,   1.0, 1, 1.0000
  2634,'C ',   323.600,    15.850,   647.200,  -647.200,1.03000,  2604,  1742.639, 0.00000E+0, 2.00000E-1, 0.00000E+0, 0.00000E+0,1.00000,1,  100.0,  1618.000,     0.000,   1,1.0000
  2637,'H ',    40.289,    34.800,    34.800,   -34.800,1.03000,  2612,    93.702, 0.00000E+0, 2.00000E-1, 0.00000E+0, 0.00000E+0,1.00000,1,  100.0,    87.000,     0.000,   1,1.0000
  2638,'H ',   188.480,   -17.955,   100.000,  -100.000,1.01500,  2608,   419.105, 0.00000E+0, 2.00000E-1, 0.00000E+0, 0.00000E+0,1.00000,1,  100.0,   407.000,     0.000,   1,1.0000
  2901,'AD',     0.000,  -303.831, 99999.000,-99999.000,1.00000,  2901,   100.000, 0.00000E+0, 1.00000E+0, 0.00000E+0, 0.00000E+0,1.00000,1,  100.0, 99999.000,-99999.000,   1,1.0000
  2902,'AD',     0.000,  -250.485, 99999.000,-99999.000,1.00000,  2902,   100.000, 0.00000E+0, 1.00000E+0, 0.00000E+0, 0.00000E+0,1.00000,1,  100.0, 99999.000,-99999.000,   1,1.0000
  3101,'AD',     0.000,   -16.425, 99999.000,-99999.000,1.00000,  3101,   100.000, 0.00000E+0, 1.00000E+0, 0.00000E+0, 0.00000E+0,1.00000,1,  100.0, 99999.000,-99999.000,   1,1.0000
  3102,'AD',     0.000,    -9.145, 99999.000,-99999.000,1.00000,  3102,   100.000, 0.00000E+0, 1.00000E+0, 0.00000E+0, 0.00000E+0,1.00000,1,  100.0, 99999.000,-99999.000,   1,1.0000
  3103,'AD',     0.000,    -4.668, 99999.000,-99999.000,1.00000,  3103,   100.000, 0.00000E+0, 1.00000E+0, 0.00000E+0, 0.00000E+0,1.00000,1,  100.0, 99999.000,-99999.000,   1,1.0000
  3105,'AD',     0.000,   -24.672, 99999.000,-99999.000,1.00000,  3105,   100.000, 0.00000E+0, 1.00000E+0, 0.00000E+0, 0.00000E+0,1.00000,1,  100.0, 99999.000,-99999.000,   1,1.0000
  3133,'NG',     0.000,    24.800,    24.800,   -24.800,1.00000,  3103,    66.776, 0.00000E+0, 2.00000E-1, 0.00000E+0, 0.00000E+0,1.00000,0,  100.0,    62.000,     0.000,   1,1.0000
  3133,'SC',     0.000,     0.000,   500.000,  -500.000,1.00000,  3103,   500.000, 0.00000E+0, 2.00000E-1, 0.00000E+0, 0.00000E+0,1.00000,0,  100.0,     0.100,     0.000,   1,1.0000
  3135,'MG',   303.488,   -24.672,   216.400,  -216.400,1.00000,  3105,   582.675, 0.00000E+0, 2.00000E-1, 0.00000E+0, 0.00000E+0,1.00000,1,  100.0,   541.000,     0.000,   1,1.0000
  3135,'NG',     0.000,     6.381,    15.200,   -15.200,1.00000,  3105,    40.927, 0.00000E+0, 2.00000E-1, 0.00000E+0, 0.00000E+0,1.00000,0,  100.0,    38.000,     0.000,   1,1.0000
  3201,'AD',     0.000,  -178.092, 99999.000,-99999.000,1.00000,  3201,   100.000, 0.00000E+0, 1.00000E+0, 0.00000E+0, 0.00000E+0,1.00000,1,  100.0, 99999.000,-99999.000,   1,1.0000
  3202,'AD',     0.000,   -44.377, 99999.000,-99999.000,1.00000,  3202,   100.000, 0.00000E+0, 1.00000E+0, 0.00000E+0, 0.00000E+0,1.00000,1,  100.0, 99999.000,-99999.000,   1,1.0000
  3203,'AD',     0.000,  -199.172, 99999.000,-99999.000,1.00000,  3203,   100.000, 0.00000E+0, 1.00000E+0, 0.00000E+0, 0.00000E+0,1.00000,1,  100.0, 99999.000,-99999.000,   1,1.0000
  3204,'AD',     0.000,  -120.247, 99999.000,-99999.000,1.00000,  3204,   100.000, 0.00000E+0, 1.00000E+0, 0.00000E+0, 0.00000E+0,1.00000,1,  100.0, 99999.000,-99999.000,   1,1.0000
  3205,'AD',     0.000,    51.556, 99999.000,-99999.000,1.00000,  3205,   100.000, 0.00000E+0, 1.00000E+0, 0.00000E+0, 0.00000E+0,1.00000,1,  100.0, 99999.000,-99999.000,   1,1.0000
  3234,'DG',     0.000,    15.032,    70.800,   -70.800,1.01000,  3204,   190.635, 0.00000E+0, 2.00000E-1, 0.00000E+0, 0.00000E+0,1.00000,0,  100.0,   177.000,     0.000,   1,1.0000
  3234,'MG',   652.309,   -63.792,  1244.000, -1244.000,1.01000,  3204,  4048.845, 0.00000E+0, 2.00000E-1, 0.00000E+0, 0.00000E+0,1.00000,1,  100.0,  3853.000,     0.000,   1,1.0000
  3234,'NG',     0.000,    87.878,   382.000,  -382.000,1.01000,  3204,  1105.121, 0.00000E+0, 2.00000E-1, 0.00000E+0, 0.00000E+0,1.00000,0,  100.0,  1037.000,     0.000,   1,1.0000
  3234,'NW',   577.292,   -56.455,   150.000,  -150.000,1.01000,  3204,  1746.453, 0.00000E+0, 2.00000E-1, 0.00000E+0, 0.00000E+0,1.00000,1,  100.0,  1740.000,     0.000,   1,1.0000,   0,   1.0,   0,   1.0,   0,   1.0, 1, 1.0000
...